# generated using pymatgen
data_CrPbO4
_symmetry_space_group_name_H-M   P2_1/c
_cell_length_a   6.80690603
_cell_length_b   7.43348116
_cell_length_c   8.71718994
_cell_angle_alpha   90.00000000
_cell_angle_beta   127.14653138
_cell_angle_gamma   90.00000000
_symmetry_Int_Tables_number   14
_chemical_formula_structural   CrPbO4
_chemical_formula_sum   'Cr4 Pb4 O16'
_cell_volume   351.58305246
_cell_formula_units_Z   4
loop_
 _symmetry_equiv_pos_site_id
 _symmetry_equiv_pos_as_xyz
  1  'x, y, z'
  2  '-x, -y, -z'
  3  '-x, y+1/2, -z+1/2'
  4  'x, -y+1/2, z+1/2'
loop_
 _atom_type_symbol
 _atom_type_oxidation_number
  Cr6+  6.0
  Pb2+  2.0
  O2-  -2.0
loop_
 _atom_site_type_symbol
 _atom_site_label
 _atom_site_symmetry_multiplicity
 _atom_site_fract_x
 _atom_site_fract_y
 _atom_site_fract_z
 _atom_site_occupancy
  Cr6+  Cr0  4  0.31949110  0.16446176  0.70074683  1
  Pb2+  Pb1  4  0.17893555  0.64204237  0.77980072  1
  O2-  O2  4  0.14080888  0.15546394  0.12484232  1
  O2-  O3  4  0.19288254  0.00789941  0.74941857  1
  O2-  O4  4  0.34557826  0.09886354  0.53169961  1
  O2-  O5  4  0.39807017  0.71187674  0.61240438  1
