# generated using pymatgen
data_TmNiC2
_symmetry_space_group_name_H-M   Amm2
_cell_length_a   3.49369950
_cell_length_b   4.46692285
_cell_length_c   5.93485654
_cell_angle_alpha   90.00000000
_cell_angle_beta   90.00000000
_cell_angle_gamma   90.00000000
_symmetry_Int_Tables_number   38
_chemical_formula_structural   TmNiC2
_chemical_formula_sum   'Tm2 Ni2 C4'
_cell_volume   92.61988235
_cell_formula_units_Z   2
loop_
 _symmetry_equiv_pos_site_id
 _symmetry_equiv_pos_as_xyz
  1  'x, y, z'
  2  '-x, -y, z'
  3  '-x, y, z'
  4  'x, -y, z'
  5  'x, y+1/2, z+1/2'
  6  '-x, -y+1/2, z+1/2'
  7  '-x, y+1/2, z+1/2'
  8  'x, -y+1/2, z+1/2'
loop_
 _atom_type_symbol
 _atom_type_oxidation_number
  Tm3+  3.0
  Ni3+  3.0
  C3-  -3.0
loop_
 _atom_site_type_symbol
 _atom_site_label
 _atom_site_symmetry_multiplicity
 _atom_site_fract_x
 _atom_site_fract_y
 _atom_site_fract_z
 _atom_site_occupancy
  Tm3+  Tm0  2  0.00000000  0.00000000  0.99670035  1
  Ni3+  Ni1  2  0.50000000  0.00000000  0.38696172  1
  C3-  C2  4  0.50000000  0.15362568  0.69716997  1
