# generated using pymatgen
data_Y2TiO5
_symmetry_space_group_name_H-M   Pnma
_cell_length_a   10.35575120
_cell_length_b   3.68515313
_cell_length_c   11.24964441
_cell_angle_alpha   90.00000000
_cell_angle_beta   90.00000000
_cell_angle_gamma   90.00000000
_symmetry_Int_Tables_number   62
_chemical_formula_structural   Y2TiO5
_chemical_formula_sum   'Y8 Ti4 O20'
_cell_volume   429.31488045
_cell_formula_units_Z   4
loop_
 _symmetry_equiv_pos_site_id
 _symmetry_equiv_pos_as_xyz
  1  'x, y, z'
  2  '-x, -y, -z'
  3  '-x+1/2, -y, z+1/2'
  4  'x+1/2, y, -z+1/2'
  5  'x+1/2, -y+1/2, -z+1/2'
  6  '-x+1/2, y+1/2, z+1/2'
  7  '-x, y+1/2, -z'
  8  'x, -y+1/2, z'
loop_
 _atom_type_symbol
 _atom_type_oxidation_number
  Y3+  3.0
  Ti4+  4.0
  O2-  -2.0
loop_
 _atom_site_type_symbol
 _atom_site_label
 _atom_site_symmetry_multiplicity
 _atom_site_fract_x
 _atom_site_fract_y
 _atom_site_fract_z
 _atom_site_occupancy
  Y3+  Y0  4  0.11521195  0.25000000  0.77718311  1
  Y3+  Y1  4  0.13610475  0.25000000  0.44347377  1
  Ti4+  Ti2  4  0.17420449  0.25000000  0.11942971  1
  O2-  O3  4  0.00616217  0.75000000  0.39487684  1
  O2-  O4  4  0.00643595  0.25000000  0.15469419  1
  O2-  O5  4  0.22447972  0.25000000  0.95706505  1
  O2-  O6  4  0.23597021  0.75000000  0.11674076  1
  O2-  O7  4  0.24361241  0.75000000  0.77081805  1
