# generated using pymatgen
data_ZnS
_symmetry_space_group_name_H-M   P3m1
_cell_length_a   3.80878728
_cell_length_b   3.80878728
_cell_length_c   87.11078676
_cell_angle_alpha   90.00000000
_cell_angle_beta   90.00000000
_cell_angle_gamma   120.00000000
_symmetry_Int_Tables_number   156
_chemical_formula_structural   ZnS
_chemical_formula_sum   'Zn28 S28'
_cell_volume   1094.39979810
_cell_formula_units_Z   28
loop_
 _symmetry_equiv_pos_site_id
 _symmetry_equiv_pos_as_xyz
  1  'x, y, z'
  2  '-y, x-y, z'
  3  '-x+y, -x, z'
  4  '-y, -x, z'
  5  '-x+y, y, z'
  6  'x, x-y, z'
loop_
 _atom_type_symbol
 _atom_type_oxidation_number
  Zn2+  2.0
  S2-  -2.0
loop_
 _atom_site_type_symbol
 _atom_site_label
 _atom_site_symmetry_multiplicity
 _atom_site_fract_x
 _atom_site_fract_y
 _atom_site_fract_z
 _atom_site_occupancy
  Zn2+  Zn0  1  0.00000000  0.00000000  0.07142576  1
  Zn2+  Zn1  1  0.00000000  0.00000000  0.17857434  1
  Zn2+  Zn2  1  0.00000000  0.00000000  0.28571786  1
  Zn2+  Zn3  1  0.00000000  0.00000000  0.39286574  1
  Zn2+  Zn4  1  0.00000000  0.00000000  0.49999862  1
  Zn2+  Zn5  1  0.00000000  0.00000000  0.60714450  1
  Zn2+  Zn6  1  0.00000000  0.00000000  0.71429456  1
  Zn2+  Zn7  1  0.00000000  0.00000000  0.82142129  1
  Zn2+  Zn8  1  0.00000000  0.00000000  0.92857249  1
  Zn2+  Zn9  1  0.33333333  0.66666667  0.10714483  1
  Zn2+  Zn10  1  0.33333333  0.66666667  0.21429680  1
  Zn2+  Zn11  1  0.33333333  0.66666667  0.32142790  1
  Zn2+  Zn12  1  0.33333333  0.66666667  0.42857329  1
  Zn2+  Zn13  1  0.33333333  0.66666667  0.53571956  1
  Zn2+  Zn14  1  0.33333333  0.66666667  0.64285942  1
  Zn2+  Zn15  1  0.33333333  0.66666667  0.74999666  1
  Zn2+  Zn16  1  0.33333333  0.66666667  0.89286216  1
  Zn2+  Zn17  1  0.33333333  0.66666667  0.99999939  1
  Zn2+  Zn18  1  0.66666667  0.33333333  0.03572759  1
  Zn2+  Zn19  1  0.66666667  0.33333333  0.14286344  1
  Zn2+  Zn20  1  0.66666667  0.33333333  0.25000429  1
  Zn2+  Zn21  1  0.66666667  0.33333333  0.35714384  1
  Zn2+  Zn22  1  0.66666667  0.33333333  0.46429231  1
  Zn2+  Zn23  1  0.66666667  0.33333333  0.57143180  1
  Zn2+  Zn24  1  0.66666667  0.33333333  0.67857137  1
  Zn2+  Zn25  1  0.66666667  0.33333333  0.78570871  1
  Zn2+  Zn26  1  0.66666667  0.33333333  0.85715597  1
  Zn2+  Zn27  1  0.66666667  0.33333333  0.96428569  1
  S2-  S28  1  0.00000000  0.00000000  0.09820889  1
  S2-  S29  1  0.00000000  0.00000000  0.20535532  1
  S2-  S30  1  0.00000000  0.00000000  0.31249747  1
  S2-  S31  1  0.00000000  0.00000000  0.41964822  1
  S2-  S32  1  0.00000000  0.00000000  0.52677879  1
  S2-  S33  1  0.00000000  0.00000000  0.63392513  1
  S2-  S34  1  0.00000000  0.00000000  0.74107127  1
  S2-  S35  1  0.00000000  0.00000000  0.84822800  1
  S2-  S36  1  0.00000000  0.00000000  0.95535281  1
  S2-  S37  1  0.33333333  0.66666667  0.02680453  1
  S2-  S38  1  0.33333333  0.66666667  0.13392577  1
  S2-  S39  1  0.33333333  0.66666667  0.24107333  1
  S2-  S40  1  0.33333333  0.66666667  0.34820960  1
  S2-  S41  1  0.33333333  0.66666667  0.45535498  1
  S2-  S42  1  0.33333333  0.66666667  0.56249701  1
  S2-  S43  1  0.33333333  0.66666667  0.66963597  1
  S2-  S44  1  0.33333333  0.66666667  0.77678412  1
  S2-  S45  1  0.33333333  0.66666667  0.91964201  1
  S2-  S46  1  0.66666667  0.33333333  0.06249789  1
  S2-  S47  1  0.66666667  0.33333333  0.16963851  1
  S2-  S48  1  0.66666667  0.33333333  0.27678726  1
  S2-  S49  1  0.66666667  0.33333333  0.38392879  1
  S2-  S50  1  0.66666667  0.33333333  0.49106895  1
  S2-  S51  1  0.66666667  0.33333333  0.59820990  1
  S2-  S52  1  0.66666667  0.33333333  0.70535421  1
  S2-  S53  1  0.66666667  0.33333333  0.81247220  1
  S2-  S54  1  0.66666667  0.33333333  0.88392639  1
  S2-  S55  1  0.66666667  0.33333333  0.99104451  1
